Test_Network/condensed/network_10/Feeder_3/Lines.txt
New Line.LINE1 Bus1=1 Bus2=2 phases=3 Linecode=3c_300_SAC_XC Length=0.25077 Units=m
New Line.LINE2 Bus1=2 Bus2=3 phases=3 Linecode=3c_300_SAC_XC Length=0.051866 Units=m
New Line.LINE3 Bus1=3 Bus2=4 phases=3 Linecode=3c_300_SAC_XC Length=0.031065 Units=m
New Line.LINE4 Bus1=4 Bus2=5 phases=3 Linecode=3c_300_SAC_XC Length=0.0314 Units=m
New Line.LINE5 Bus1=5 Bus2=6 phases=3 Linecode=3c_300_SAC_XC Length=0.038601 Units=m
New Line.LINE6 Bus1=6 Bus2=7 phases=3 Linecode=3c_300_SAC_XC Length=0.056294 Units=m
New Line.LINE7 Bus1=7 Bus2=8 phases=3 Linecode=3c_300_SAC_XC Length=0.047424 Units=m
New Line.LINE8 Bus1=8 Bus2=9 phases=3 Linecode=3c_300_SAC_XC Length=0.047321 Units=m
New Line.LINE9 Bus1=9 Bus2=10 phases=3 Linecode=3c_300_SAC_XC Length=0.055698 Units=m
New Line.LINE10 Bus1=10 Bus2=11 phases=3 Linecode=3c_300_SAC_XC Length=0.034 Units=m
New Line.LINE11 Bus1=11 Bus2=12 phases=3 Linecode=3c_300_SAC_XC Length=0.08127 Units=m
New Line.LINE12 Bus1=12 Bus2=13 phases=3 Linecode=3c_300_SAC_XC Length=0.5174 Units=m
New Line.LINE13 Bus1=13 Bus2=14 phases=3 Linecode=3c_300_SAC_XC Length=0.26439 Units=m
New Line.LINE14 Bus1=14 Bus2=15 phases=3 Linecode=3c_300_SAC_XC Length=1.5261 Units=m
New Line.LINE15 Bus1=15 Bus2=16 phases=3 Linecode=3c_300_SAC_XC Length=0.069291 Units=m
New Line.LINE16 Bus1=16 Bus2=17 phases=3 Linecode=3c_300_SAC_XC Length=0.081411 Units=m
New Line.LINE17 Bus1=17 Bus2=18 phases=3 Linecode=3c_300_SAC_XC Length=0.061295 Units=m
New Line.LINE18 Bus1=18 Bus2=19 phases=3 Linecode=3c_300_SAC_XC Length=0.041869 Units=m
New Line.LINE19 Bus1=19 Bus2=20 phases=3 Linecode=3c_300_SAC_XC Length=0.099402 Units=m
New Line.LINE20 Bus1=20 Bus2=21 phases=3 Linecode=3c_300_SAC_XC Length=0.098839 Units=m
New Line.LINE21 Bus1=21 Bus2=22 phases=3 Linecode=3c_300_SAC_XC Length=0.099328 Units=m
New Line.LINE22 Bus1=22 Bus2=23 phases=3 Linecode=3c_300_SAC_XC Length=0.09985 Units=m
New Line.LINE23 Bus1=23 Bus2=24 phases=3 Linecode=3c_300_SAC_XC Length=0.099126 Units=m
New Line.LINE24 Bus1=24 Bus2=25 phases=3 Linecode=3c_300_SAC_XC Length=0.099247 Units=m
New Line.LINE25 Bus1=25 Bus2=26 phases=3 Linecode=3c_300_SAC_XC Length=0.53899 Units=m
New Line.LINE26 Bus1=26 Bus2=27 phases=3 Linecode=3c_300_SAC_XC Length=1.3641 Units=m
New Line.LINE27 Bus1=27 Bus2=28 phases=3 Linecode=3c_300_SAC_XC Length=2.0852 Units=m
New Line.LINE28 Bus1=28 Bus2=29 phases=3 Linecode=3c_300_SAC_XC Length=1.3633 Units=m
New Line.LINE29 Bus1=29 Bus2=30 phases=3 Linecode=3c_300_SAC_XC Length=1.0549 Units=m
New Line.LINE30 Bus1=30 Bus2=31 phases=3 Linecode=3c_300_SAC_XC Length=0.87671 Units=m
New Line.LINE31 Bus1=31 Bus2=32 phases=3 Linecode=3c_300_SAC_XC Length=0.40268 Units=m
New Line.LINE32 Bus1=32 Bus2=33 phases=3 Linecode=3c_300_SAC_XC Length=0.19676 Units=m
New Line.LINE33 Bus1=33 Bus2=34 phases=3 Linecode=3c_300_SAC_XC Length=3.2652 Units=m
New Line.LINE34 Bus1=34 Bus2=35 phases=3 Linecode=3c_300_SAC_XC Length=6.5935 Units=m
New Line.LINE35 Bus1=35 Bus2=36 phases=3 Linecode=3c_300_SAC_XC Length=0.99242 Units=m
New Line.LINE36 Bus1=36 Bus2=37 phases=3 Linecode=3c_300_SAC_XC Length=0.2614 Units=m
New Line.LINE37 Bus1=37 Bus2=38 phases=3 Linecode=3c_300_SAC_XC Length=0.24292 Units=m
New Line.LINE38 Bus1=38 Bus2=39 phases=3 Linecode=3c_300_SAC_XC Length=1.7197 Units=m
New Line.LINE39 Bus1=39 Bus2=40 phases=3 Linecode=3c_300_SAC_XC Length=1.5537 Units=m
New Line.LINE40 Bus1=40 Bus2=41 phases=3 Linecode=3c_300_SAC_XC Length=2.2715 Units=m
New Line.LINE41 Bus1=41 Bus2=42 phases=3 Linecode=3c_300_SAC_XC Length=1.0138 Units=m
New Line.LINE42 Bus1=42 Bus2=43 phases=3 Linecode=3c_300_SAC_XC Length=0.26438 Units=m
New Line.LINE43 Bus1=43 Bus2=44 phases=3 Linecode=4c_300_SAC Length=0.74316 Units=m
New Line.LINE44 Bus1=44 Bus2=45 phases=3 Linecode=4c_300_SAC Length=3.1371 Units=m
New Line.LINE45 Bus1=45 Bus2=46 phases=3 Linecode=4c_300_SAC Length=0.60093 Units=m
New Line.LINE46 Bus1=46 Bus2=47 phases=3 Linecode=4c_300_SAC Length=0.54027 Units=m
New Line.LINE47 Bus1=47 Bus2=48 phases=3 Linecode=4c_300_SAC Length=0.40599 Units=m
New Line.LINE48 Bus1=48 Bus2=49 phases=3 Linecode=4c_.5 Length=0.6109 Units=m
New Line.LINE49 Bus1=49 Bus2=50 phases=3 Linecode=4c_.5 Length=0.25371 Units=m
New Line.LINE50 Bus1=50 Bus2=51 phases=3 Linecode=4c_.5 Length=6.5347 Units=m
New Line.LINE51 Bus1=51 Bus2=52 phases=3 Linecode=4c_.5 Length=0.045309 Units=m
New Line.LINE52 Bus1=52 Bus2=53 phases=3 Linecode=4c_.5 Length=0.045222 Units=m
New Line.LINE53 Bus1=53 Bus2=54 phases=3 Linecode=4c_.5 Length=0.037483 Units=m
New Line.LINE54 Bus1=54 Bus2=55 phases=3 Linecode=4c_.5 Length=0.035467 Units=m
New Line.LINE55 Bus1=55 Bus2=56 phases=3 Linecode=4c_.5 Length=0.037485 Units=m
New Line.LINE56 Bus1=56 Bus2=57 phases=3 Linecode=4c_.5 Length=0.036124 Units=m
New Line.LINE57 Bus1=57 Bus2=58 phases=3 Linecode=4c_.5 Length=0.040261 Units=m
New Line.LINE58 Bus1=58 Bus2=59 phases=3 Linecode=4c_.5 Length=4.3024 Units=m
New Line.LINE59 Bus1=59 Bus2=60 phases=3 Linecode=4c_.5 Length=11.2475 Units=m
New Line.LINE60 Bus1=60 Bus2=61 phases=3 Linecode=4c_.5 Length=22.7178 Units=m
New Line.LINE61 Bus1=61 Bus2=62 phases=3 Linecode=4c_.5 Length=6.4214 Units=m
New Line.LINE62 Bus1=62 Bus2=63 phases=3 Linecode=4c_.5 Length=0.78067 Units=m
New Line.LINE63 Bus1=63 Bus2=64 phases=3 Linecode=4c_.5 Length=1.0662 Units=m
New Line.LINE64 Bus1=64 Bus2=65 phases=3 Linecode=4c_.5 Length=0.44761 Units=m
New Line.LINE65 Bus1=65 Bus2=66 phases=3 Linecode=4c_.5 Length=0.44842 Units=m
New Line.LINE66 Bus1=66 Bus2=67 phases=3 Linecode=4c_.5 Length=0.30219 Units=m
New Line.LINE67 Bus1=67 Bus2=68 phases=3 Linecode=4c_.5 Length=0.32244 Units=m
New Line.LINE68 Bus1=68 Bus2=69 phases=3 Linecode=4c_.5 Length=0.369 Units=m
New Line.LINE69 Bus1=69 Bus2=70 phases=3 Linecode=4c_.5 Length=0.26388 Units=m
New Line.LINE70 Bus1=70 Bus2=71 phases=3 Linecode=4c_.5 Length=0.46168 Units=m
New Line.LINE71 Bus1=71 Bus2=72 phases=3 Linecode=4c_.5 Length=2.5752 Units=m
New Line.LINE72 Bus1=72 Bus2=73 phases=3 Linecode=4c_.5 Length=2.5765 Units=m
New Line.LINE73 Bus1=73 Bus2=74 phases=3 Linecode=4c_.5 Length=10.8712 Units=m
New Line.LINE74 Bus1=74 Bus2=75 phases=3 Linecode=4c_.5 Length=10.8712 Units=m
New Line.LINE75 Bus1=75 Bus2=76 phases=3 Linecode=4c_.5 Length=0.92068 Units=m
New Line.LINE76 Bus1=76 Bus2=77 phases=3 Linecode=4c_.5 Length=4.2388 Units=m
New Line.LINE77 Bus1=77 Bus2=78 phases=3 Linecode=4c_.5 Length=0.45437 Units=m
New Line.LINE78 Bus1=78 Bus2=79 phases=3 Linecode=4c_.5 Length=1.5074 Units=m
New Line.LINE79 Bus1=79 Bus2=80 phases=3 Linecode=4c_.5 Length=0.66921 Units=m
New Line.LINE80 Bus1=80 Bus2=81 phases=3 Linecode=4c_.5 Length=2.9181 Units=m
New Line.LINE81 Bus1=81 Bus2=82 phases=3 Linecode=4c_.5 Length=20.7134 Units=m
New Line.LINE82 Bus1=82 Bus2=83 phases=3 Linecode=4c_.5 Length=3.8079 Units=m
New Line.LINE83 Bus1=83 Bus2=84 phases=3 Linecode=4c_.5 Length=0.25589 Units=m
New Line.LINE84 Bus1=84 Bus2=85 phases=3 Linecode=4c_.5 Length=1.5965 Units=m
New Line.LINE85 Bus1=85 Bus2=86 phases=3 Linecode=4c_300_SAC Length=0.59994 Units=m
New Line.LINE86 Bus1=86 Bus2=87 phases=3 Linecode=4c_300_SAC Length=0.36225 Units=m
New Line.LINE87 Bus1=87 Bus2=88 phases=3 Linecode=4c_300_SAC Length=0.159 Units=m
New Line.LINE88 Bus1=88 Bus2=89 phases=3 Linecode=4c_300_SAC Length=0.19657 Units=m
New Line.LINE89 Bus1=89 Bus2=90 phases=3 Linecode=4c_300_SAC Length=0.22557 Units=m
New Line.LINE90 Bus1=90 Bus2=91 phases=3 Linecode=4c_300_SAC Length=0.30496 Units=m
New Line.LINE91 Bus1=91 Bus2=92 phases=3 Linecode=4c_300_SAC Length=0.36381 Units=m
New Line.LINE92 Bus1=92 Bus2=93 phases=3 Linecode=4c_300_SAC Length=0.27965 Units=m
New Line.LINE93 Bus1=93 Bus2=94 phases=3 Linecode=4c_300_SAC Length=0.60763 Units=m
New Line.LINE94 Bus1=94 Bus2=95 phases=3 Linecode=4c_300_SAC Length=0.42043 Units=m
New Line.LINE96 Bus1=95 Bus2=97 phases=3 Linecode=4c_300_SAC Length=1.1378 Units=m
New Line.LINE98 Bus1=97 Bus2=99 phases=3 Linecode=4c_300_SAC Length=1.7082 Units=m
New Line.LINE100 Bus1=99 Bus2=101 phases=3 Linecode=4c_300_SAC Length=2.0044 Units=m
New Line.LINE102 Bus1=101 Bus2=103 phases=3 Linecode=4c_300_SAC Length=0.72978 Units=m
New Line.LINE104 Bus1=103 Bus2=105 phases=3 Linecode=4c_300_SAC Length=0.43423 Units=m
New Line.LINE106 Bus1=105 Bus2=107 phases=3 Linecode=4c_300_SAC Length=0.46207 Units=m
New Line.LINE108 Bus1=107 Bus2=109 phases=3 Linecode=4c_300_SAC Length=0.31717 Units=m
New Line.LINE110 Bus1=109 Bus2=111 phases=3 Linecode=4c_300_SAC Length=0.32389 Units=m
New Line.LINE112 Bus1=111 Bus2=113 phases=3 Linecode=4c_300_SAC Length=0.48093 Units=m
New Line.LINE114 Bus1=113 Bus2=115 phases=3 Linecode=4c_300_SAC Length=0.2612 Units=m
New Line.LINE116 Bus1=115 Bus2=117 phases=3 Linecode=4c_.5_AS Length=0.502 Units=m
New Line.LINE118 Bus1=117 Bus2=119 phases=3 Linecode=4c_.5_AS Length=0.47777 Units=m
New Line.LINE120 Bus1=119 Bus2=121 phases=3 Linecode=4c_.5_AS Length=0.34083 Units=m
New Line.LINE122 Bus1=121 Bus2=123 phases=3 Linecode=4c_.5_AS Length=0.43246 Units=m
New Line.LINE124 Bus1=123 Bus2=125 phases=3 Linecode=4c_.5_AS Length=0.46944 Units=m
New Line.LINE126 Bus1=125 Bus2=127 phases=3 Linecode=4c_.5_AS Length=2.9141 Units=m
New Line.LINE128 Bus1=127 Bus2=129 phases=3 Linecode=4c_.5_AS Length=0.87133 Units=m
New Line.LINE130 Bus1=129 Bus2=131 phases=3 Linecode=4c_.5_AS Length=0.22777 Units=m
New Line.LINE132 Bus1=131 Bus2=133 phases=3 Linecode=4c_.5_AS Length=0.37041 Units=m
New Line.LINE134 Bus1=133 Bus2=135 phases=3 Linecode=4c_.5_AS Length=0.7135 Units=m
New Line.LINE136 Bus1=135 Bus2=137 phases=3 Linecode=4c_.5_AS Length=12.584 Units=m
New Line.LINE138 Bus1=137 Bus2=139 phases=3 Linecode=4c_.5_AS Length=0.56704 Units=m
New Line.LINE140 Bus1=139 Bus2=141 phases=3 Linecode=4c_.5_AS Length=0.28319 Units=m
New Line.LINE142 Bus1=141 Bus2=143 phases=3 Linecode=4c_.5_AS Length=1.1525 Units=m
New Line.LINE144 Bus1=143 Bus2=145 phases=3 Linecode=4c_.5_AS Length=0.084758 Units=m
New Line.LINE146 Bus1=145 Bus2=147 phases=3 Linecode=4c_.5_AS Length=0.074108 Units=m
New Line.LINE148 Bus1=147 Bus2=149 phases=3 Linecode=4c_.5_AS Length=0.070214 Units=m
New Line.LINE150 Bus1=149 Bus2=151 phases=3 Linecode=3c_300_SAC_XC Length=3.3013 Units=m
New Line.LINE152 Bus1=151 Bus2=153 phases=3 Linecode=4c_.5_AS Length=0.84037 Units=m
New Line.LINE155 Bus1=153 Bus2=156 phases=3 Linecode=4c_.5_AS Length=17.3226 Units=m
New Line.LINE158 Bus1=156 Bus2=159 phases=3 Linecode=4c_.5_AS Length=1.4803 Units=m
New Line.LINE161 Bus1=159 Bus2=162 phases=3 Linecode=4c_.5_AS Length=1.6302 Units=m
New Line.LINE164 Bus1=162 Bus2=165 phases=3 Linecode=4c_.5_AS Length=1.4719 Units=m
New Line.LINE167 Bus1=165 Bus2=168 phases=3 Linecode=4c_.5_AS Length=0.31023 Units=m
New Line.LINE170 Bus1=168 Bus2=171 phases=3 Linecode=4c_.5_AS Length=0.3592 Units=m
New Line.LINE173 Bus1=171 Bus2=174 phases=3 Linecode=4c_.5_AS Length=2.7981 Units=m
New Line.LINE176 Bus1=174 Bus2=177 phases=3 Linecode=4c_.5_AS Length=7.8694 Units=m
New Line.LINE179 Bus1=177 Bus2=180 phases=3 Linecode=4c_.5_AS Length=3.3072 Units=m
New Line.LINE182 Bus1=180 Bus2=183 phases=3 Linecode=4c_.5_AS Length=11.9754 Units=m
New Line.LINE185 Bus1=183 Bus2=186 phases=3 Linecode=4c_.5_AS Length=0.054589 Units=m
New Line.LINE188 Bus1=186 Bus2=189 phases=3 Linecode=4c_.5_AS Length=1.2522 Units=m
New Line.LINE191 Bus1=189 Bus2=192 phases=3 Linecode=4c_.5_AS Length=1.6113 Units=m
New Line.LINE194 Bus1=192 Bus2=195 phases=3 Linecode=4c_.5_AS Length=1.1385 Units=m
New Line.LINE197 Bus1=195 Bus2=198 phases=3 Linecode=4c_.5_AS Length=0.89862 Units=m
New Line.LINE200 Bus1=198 Bus2=201 phases=3 Linecode=4c_.5_AS Length=0.30414 Units=m
New Line.LINE202 Bus1=201 Bus2=203 phases=3 Linecode=4c_.5_AS Length=0.23265 Units=m
New Line.LINE204 Bus1=203 Bus2=205 phases=3 Linecode=4c_.5_AS Length=0.17814 Units=m
New Line.LINE206 Bus1=205 Bus2=207 phases=3 Linecode=4c_.5_AS Length=0.10512 Units=m
New Line.LINE208 Bus1=207 Bus2=209 phases=3 Linecode=4c_.5_AS Length=0.16498 Units=m
New Line.LINE210 Bus1=209 Bus2=211 phases=3 Linecode=4c_.5_AS Length=0.1253 Units=m
New Line.LINE212 Bus1=211 Bus2=213 phases=3 Linecode=4c_.5_AS Length=0.42321 Units=m
New Line.LINE216 Bus1=213 Bus2=217 phases=3 Linecode=4c_.5_AS Length=0.51914 Units=m
New Line.LINE220 Bus1=217 Bus2=221 phases=3 Linecode=4c_.5_AS Length=0.76867 Units=m
New Line.LINE224 Bus1=221 Bus2=225 phases=3 Linecode=4c_.5_AS Length=0.96127 Units=m
New Line.LINE228 Bus1=225 Bus2=229 phases=3 Linecode=4c_.5_AS Length=1.2187 Units=m
New Line.LINE231 Bus1=229 Bus2=232 phases=3 Linecode=4c_.5_AS Length=4.7744 Units=m
New Line.LINE234 Bus1=232 Bus2=235 phases=3 Linecode=4c_.5_AS Length=5.3565 Units=m
New Line.LINE237 Bus1=235 Bus2=238 phases=3 Linecode=4c_.5_AS Length=5.1507 Units=m
New Line.LINE240 Bus1=238 Bus2=241 phases=3 Linecode=4c_.5_AS Length=7.9161 Units=m
New Line.LINE243 Bus1=241 Bus2=244 phases=3 Linecode=4c_.5_AS Length=2.7981 Units=m
New Line.LINE246 Bus1=244 Bus2=247 phases=3 Linecode=4c_.5_AS Length=0.39478 Units=m
New Line.LINE249 Bus1=247 Bus2=250 phases=3 Linecode=4c_.5_AS Length=0.73081 Units=m
New Line.LINE251 Bus1=250 Bus2=252 phases=3 Linecode=4c_.5_AS Length=4.9792 Units=m
New Line.LINE253 Bus1=252 Bus2=254 phases=3 Linecode=4c_.5 Length=16.4648 Units=m
New Line.LINE255 Bus1=254 Bus2=256 phases=3 Linecode=4c_.5 Length=4.2138 Units=m
New Line.LINE257 Bus1=256 Bus2=258 phases=3 Linecode=4c_.5 Length=0.3152 Units=m
New Line.LINE259 Bus1=258 Bus2=260 phases=3 Linecode=4c_.5 Length=0.22454 Units=m
New Line.LINE261 Bus1=260 Bus2=262 phases=3 Linecode=4c_.5 Length=0.26401 Units=m
New Line.LINE263 Bus1=262 Bus2=264 phases=3 Linecode=4c_.5 Length=0.44783 Units=m
New Line.LINE265 Bus1=264 Bus2=266 phases=3 Linecode=4c_.5 Length=0.41192 Units=m
New Line.LINE267 Bus1=266 Bus2=268 phases=3 Linecode=4c_.5 Length=0.3182 Units=m
New Line.LINE269 Bus1=268 Bus2=270 phases=3 Linecode=4c_.5 Length=0.40753 Units=m
New Line.LINE271 Bus1=270 Bus2=272 phases=3 Linecode=4c_.5 Length=0.38354 Units=m
New Line.LINE272 Bus1=272 Bus2=273 phases=3 Linecode=4c_.5 Length=0.34976 Units=m
New Line.LINE273 Bus1=273 Bus2=274 phases=3 Linecode=4c_.5 Length=0.528 Units=m
New Line.LINE274 Bus1=274 Bus2=275 phases=3 Linecode=4c_.5 Length=0.516 Units=m
New Line.LINE275 Bus1=275 Bus2=276 phases=3 Linecode=4c_.5 Length=2.9851 Units=m
New Line.LINE278 Bus1=276 Bus2=279 phases=3 Linecode=4c_.5 Length=9.7233 Units=m
New Line.LINE281 Bus1=279 Bus2=282 phases=3 Linecode=4c_.5 Length=11.4048 Units=m
New Line.LINE284 Bus1=282 Bus2=285 phases=3 Linecode=4c_.5 Length=5.3231 Units=m
New Line.LINE286 Bus1=285 Bus2=287 phases=3 Linecode=95_SAC_XC Length=0.65218 Units=m
New Line.LINE288 Bus1=287 Bus2=289 phases=3 Linecode=95_SAC_XC Length=0.55244 Units=m
New Line.LINE291 Bus1=289 Bus2=292 phases=3 Linecode=95_SAC_XC Length=0.47835 Units=m
New Line.LINE295 Bus1=292 Bus2=296 phases=3 Linecode=4c_.1 Length=0.62225 Units=m
New Line.LINE300 Bus1=296 Bus2=301 phases=3 Linecode=4c_.1 Length=0.3417 Units=m
New Line.LINE304 Bus1=301 Bus2=305 phases=3 Linecode=4c_.1 Length=0.52829 Units=m
New Line.LINE307 Bus1=305 Bus2=308 phases=3 Linecode=4c_.1 Length=0.51831 Units=m
New Line.LINE310 Bus1=308 Bus2=311 phases=3 Linecode=4c_.1 Length=0.42486 Units=m
New Line.LINE313 Bus1=311 Bus2=314 phases=3 Linecode=4c_.1 Length=6.0086 Units=m
New Line.LINE316 Bus1=314 Bus2=317 phases=3 Linecode=4c_.1 Length=0.58973 Units=m
New Line.LINE319 Bus1=317 Bus2=320 phases=3 Linecode=4c_.1 Length=0.32491 Units=m
New Line.LINE322 Bus1=320 Bus2=323 phases=3 Linecode=4c_.1 Length=0.20052 Units=m
New Line.LINE324 Bus1=323 Bus2=325 phases=3 Linecode=4c_.1 Length=0.17247 Units=m
New Line.LINE326 Bus1=325 Bus2=327 phases=3 Linecode=4c_.1 Length=0.15005 Units=m
New Line.LINE328 Bus1=327 Bus2=329 phases=3 Linecode=4c_.1 Length=0.26282 Units=m
New Line.LINE330 Bus1=329 Bus2=331 phases=3 Linecode=4c_.1 Length=0.3619 Units=m
New Line.LINE332 Bus1=331 Bus2=333 phases=3 Linecode=4c_.1 Length=6.9227 Units=m
New Line.LINE333 Bus1=331 Bus2=334 phases=3 Linecode=4c_.1 Length=3.9669 Units=m
New Line.LINE334 Bus1=333 Bus2=335 phases=3 Linecode=25_SAC_XC Length=4.0386 Units=m
New Line.LINE335 Bus1=333 Bus2=336 phases=3 Linecode=4c_.1 Length=2.8461 Units=m
New Line.LINE336 Bus1=334 Bus2=337 phases=3 Linecode=25_SAC_XC Length=3.5239 Units=m
New Line.LINE337 Bus1=334 Bus2=338 phases=3 Linecode=4c_.1 Length=4.5829 Units=m
New Line.LINE339 Bus1=336 Bus2=340 phases=3 Linecode=4c_.1 Length=1.9074 Units=m
New Line.LINE340 Bus1=336 Bus2=341 phases=3 Linecode=4c_.1 Length=0.70447 Units=m
New Line.LINE341 Bus1=336 Bus2=342 phases=3 Linecode=4c_.1 Length=2.422 Units=m
New Line.LINE342 Bus1=338 Bus2=343 phases=3 Linecode=25_SAC_XC Length=6.3521 Units=m
New Line.LINE345 Bus1=340 Bus2=346 phases=3 Linecode=25_SAC_XC Length=5.882 Units=m
New Line.LINE346 Bus1=340 Bus2=347 phases=3 Linecode=4c_.1 Length=0.93381 Units=m
New Line.LINE347 Bus1=341 Bus2=348 phases=3 Linecode=25_SAC_XC Length=3.3966 Units=m
New Line.LINE348 Bus1=342 Bus2=349 phases=3 Linecode=25_SAC_XC Length=2.9265 Units=m
New Line.LINE352 Bus1=347 Bus2=353 phases=3 Linecode=4c_.1 Length=2.023 Units=m
New Line.LINE353 Bus1=347 Bus2=354 phases=3 Linecode=4c_.1 Length=1.552 Units=m
New Line.LINE356 Bus1=353 Bus2=357 phases=3 Linecode=25_SAC_XC Length=6.3968 Units=m
New Line.LINE357 Bus1=353 Bus2=358 phases=3 Linecode=4c_.1 Length=2.4848 Units=m
New Line.LINE358 Bus1=354 Bus2=359 phases=3 Linecode=25_SAC_XC Length=3.2697 Units=m
New Line.LINE359 Bus1=354 Bus2=360 phases=3 Linecode=4c_.1 Length=6.0833 Units=m
New Line.LINE362 Bus1=358 Bus2=363 phases=3 Linecode=25_SAC_XC Length=3.7843 Units=m
New Line.LINE363 Bus1=358 Bus2=364 phases=3 Linecode=4c_.1 Length=0.47003 Units=m
New Line.LINE364 Bus1=360 Bus2=365 phases=3 Linecode=25_SAC_XC Length=3.3138 Units=m
New Line.LINE367 Bus1=364 Bus2=368 phases=3 Linecode=25_SAC_XC Length=6.9114 Units=m
New Line.LINE388 Bus1=387 Bus2=389 phases=3 Linecode=4c_.1 Length=2.5691 Units=m
New Line.LINE389 Bus1=387 Bus2=390 phases=3 Linecode=4c_.1 Length=5.709 Units=m
New Line.LINE390 Bus1=389 Bus2=391 phases=3 Linecode=25_SAC_XC Length=2.9421 Units=m
New Line.LINE391 Bus1=389 Bus2=392 phases=3 Linecode=4c_.1 Length=3.2644 Units=m
New Line.LINE392 Bus1=390 Bus2=393 phases=3 Linecode=25_SAC_XC Length=2.5641 Units=m
New Line.LINE394 Bus1=392 Bus2=395 phases=3 Linecode=4c_.1 Length=3.689 Units=m
New Line.LINE395 Bus1=392 Bus2=396 phases=3 Linecode=4c_.1 Length=0.49321 Units=m
New Line.LINE396 Bus1=395 Bus2=397 phases=3 Linecode=25_SAC_XC Length=4.1916 Units=m
New Line.LINE400 Bus1=396 Bus2=401 phases=3 Linecode=25_SAC_XC Length=5.688 Units=m
New Line.LINECmpd_0 Bus1=360 Bus2=387 phases=3 Linecode=4c_.1 Length=6.60974 Units=m
